LTspice 24.0.12 for Windows
Circuit: * D:\Desktop\DCMOS_ASSIGNMENT2\Q1.asc
Start Time: Wed Nov  6 22:38:08 2024
solver = Normal
Maximum thread count: 16
tnom = 27
temp = 27
method = modified trap
Direct Newton iteration for .op point succeeded.
Total elapsed time: 0.112 seconds.

