LTspice 24.0.12 for Windows
Circuit: * D:\Desktop\DCOMS\LTspice\Draft2.asc
Start Time: Wed Sep 11 20:15:15 2024
solver = Normal
Maximum thread count: 16
tnom = 27
temp = 27
method = modified trap
Direct Newton iteration for .op point succeeded.
Total elapsed time: 0.177 seconds.

